<?xml version="1.0" encoding="UTF-8"?>

<!-- generated on 2025-09-19 03:21:20 by Eclipse SUMO netedit Version 1.24.0
<neteditConfiguration xmlns:xsi="http://www.w3.org/2001/XMLSchema-instance" xsi:noNamespaceSchemaLocation="http://sumo.dlr.de/xsd/neteditConfiguration.xsd">

    <input>
        <sumocfg-file value="C:\Users\Rei\Documents\Thesis\Daloy_Simulation\KCCIntersection.sumocfg"/>
        <additional-files value="C:\Users\Rei\Documents\Thesis\Daloy_Simulation\KCCIntersectionConfig.add.xml"/>
        <sumo-net-file value="KCCIntersection.net.xml"/>
    </input>

    <output>
        <output-file value="KCCIntersection.net.xml"/>
    </output>

    <processing>
        <geometry.min-radius.fix.railways value="false"/>
        <geometry.avoid-overlap value="false"/>
        <geometry.max-grade.fix value="false"/>
        <offset.disable-normalization value="true"/>
        <lefthand value="0"/>
    </processing>

    <junctions>
        <no-turnarounds value="true"/>
        <junctions.corner-detail value="5"/>
        <junctions.limit-turn-speed value="5.50"/>
        <rectangular-lane-cut value="0"/>
    </junctions>

    <pedestrian>
        <walkingareas value="0"/>
    </pedestrian>

</neteditConfiguration>
-->

<net version="1.20" junctionCornerDetail="5" limitTurnSpeed="5.50" avoidOverlap="0" xmlns:xsi="http://www.w3.org/2001/XMLSchema-instance" xsi:noNamespaceSchemaLocation="http://sumo.dlr.de/xsd/net_file.xsd">

    <location netOffset="-397445.46,-764077.93" convBoundary="0.00,-2.37,568.61,2187.54" origBoundary="122.047043,6.911622,122.076824,6.931401" projParameter="+proj=utm +zone=51 +ellps=WGS84 +datum=WGS84 +units=m +no_defs"/>

    <type id="highway.footway" priority="1" numLanes="1" speed="2.78" allow="pedestrian" oneway="1" width="2.00"/>
    <type id="highway.primary" priority="12" numLanes="2" speed="27.78" disallow="tram rail_urban rail rail_electric rail_fast ship container cable_car subway aircraft wheelchair scooter drone" oneway="0"/>
    <type id="highway.primary_link" priority="7" numLanes="1" speed="22.22" disallow="tram rail_urban rail rail_electric rail_fast ship container cable_car subway aircraft wheelchair scooter drone" oneway="0"/>
    <type id="highway.secondary" priority="11" numLanes="1" speed="27.78" disallow="tram rail_urban rail rail_electric rail_fast ship container cable_car subway aircraft wheelchair scooter drone" oneway="0"/>

    <edge id=":1017169865_0" function="internal">
        <lane id=":1017169865_0_0" index="0" disallow="tram rail_urban rail rail_electric rail_fast ship container cable_car subway aircraft wheelchair scooter drone" speed="3.65" length="4.67" shape="22.21,1039.98 21.36,1038.82 21.26,1037.93 21.91,1037.32 23.31,1036.98"/>
    </edge>
    <edge id=":1017322684_0" function="internal">
        <lane id=":1017322684_0_0" index="0" disallow="tram rail_urban rail rail_electric rail_fast ship container cable_car subway aircraft wheelchair scooter drone" speed="12.81" length="16.49" shape="74.61,1057.05 72.39,1054.16 69.39,1051.78 65.59,1049.91 61.01,1048.57"/>
    </edge>
    <edge id=":1017322684_1" function="internal">
        <lane id=":1017322684_1_0" index="0" disallow="tram rail_urban rail rail_electric rail_fast ship container cable_car subway aircraft wheelchair scooter drone" speed="27.78" length="17.53" shape="74.61,1057.05 66.18,1041.69"/>
    </edge>
    <edge id=":1017322684_2" function="internal">
        <lane id=":1017322684_2_0" index="0" disallow="tram rail_urban rail rail_electric rail_fast ship container cable_car subway aircraft wheelchair scooter drone" speed="6.44" length="13.46" shape="74.61,1057.05 72.66,1052.78 72.58,1049.95 74.37,1048.55 78.03,1048.59"/>
    </edge>
    <edge id=":1017322684_3" function="internal">
        <lane id=":1017322684_3_0" index="0" disallow="tram rail_urban rail rail_electric rail_fast ship container cable_car subway aircraft wheelchair scooter drone" speed="27.78" length="16.80" shape="77.51,1051.74 61.01,1048.57"/>
    </edge>
    <edge id=":1017322684_4" function="internal">
        <lane id=":1017322684_4_0" index="0" disallow="tram rail_urban rail rail_electric rail_fast ship container cable_car subway aircraft wheelchair scooter drone" speed="11.53" length="4.04" shape="77.51,1051.74 74.28,1050.70 73.74,1050.34"/>
    </edge>
    <edge id=":1017322684_5" function="internal">
        <lane id=":1017322684_5_0" index="0" disallow="tram rail_urban rail rail_electric rail_fast ship container cable_car subway aircraft wheelchair scooter drone" speed="3.65" length="1.44" shape="77.51,1051.74 76.46,1050.76"/>
    </edge>
    <edge id=":1017322684_9" function="internal">
        <lane id=":1017322684_9_0" index="0" disallow="tram rail_urban rail rail_electric rail_fast ship container cable_car subway aircraft wheelchair scooter drone" speed="11.53" length="11.65" shape="73.74,1050.34 71.31,1048.68 68.61,1045.67 66.18,1041.69"/>
    </edge>
    <edge id=":1017322684_10" function="internal">
        <lane id=":1017322684_10_0" index="0" disallow="tram rail_urban rail rail_electric rail_fast ship container cable_car subway aircraft wheelchair scooter drone" speed="3.65" length="3.23" shape="76.46,1050.76 76.19,1049.91 76.71,1049.18 78.03,1048.59"/>
    </edge>
    <edge id=":1017322684_6" function="internal">
        <lane id=":1017322684_6_0" index="0" disallow="tram rail_urban rail rail_electric rail_fast ship container cable_car subway aircraft wheelchair scooter drone" speed="5.31" length="8.64" shape="61.69,1045.44 64.68,1045.80 66.43,1045.29 66.93,1043.92 66.18,1041.69"/>
    </edge>
    <edge id=":1017322684_7" function="internal">
        <lane id=":1017322684_7_0" index="0" disallow="tram rail_urban rail rail_electric rail_fast ship container cable_car subway aircraft wheelchair scooter drone" speed="27.78" length="16.63" shape="61.69,1045.44 78.03,1048.59"/>
    </edge>
    <edge id=":1017322684_8" function="internal">
        <lane id=":1017322684_8_0" index="0" disallow="tram rail_urban rail rail_electric rail_fast ship container cable_car subway aircraft wheelchair scooter drone" speed="3.65" length="1.44" shape="61.69,1045.44 62.70,1046.48"/>
    </edge>
    <edge id=":1017322684_11" function="internal">
        <lane id=":1017322684_11_0" index="0" disallow="tram rail_urban rail rail_electric rail_fast ship container cable_car subway aircraft wheelchair scooter drone" speed="3.65" length="3.23" shape="62.70,1046.48 62.92,1047.35 62.35,1048.04 61.01,1048.57"/>
    </edge>
    <edge id=":1017322720_0" function="internal">
        <lane id=":1017322720_0_0" index="0" disallow="tram rail_urban rail rail_electric rail_fast ship container cable_car subway aircraft wheelchair scooter drone" speed="7.62" length="12.03" shape="350.69,1081.34 346.72,1081.34 343.75,1082.11 341.80,1083.65 340.85,1085.97"/>
    </edge>
    <edge id=":1017322720_1" function="internal">
        <lane id=":1017322720_1_0" index="0" disallow="tram rail_urban rail rail_electric rail_fast ship container cable_car subway aircraft wheelchair scooter drone" speed="11.11" length="13.29" shape="350.69,1081.34 346.90,1080.51 344.46,1079.19 342.03,1077.87 338.24,1077.04"/>
        <lane id=":1017322720_1_1" index="1" disallow="tram rail_urban rail rail_electric rail_fast ship container cable_car subway aircraft wheelchair scooter drone" speed="11.11" length="13.29" shape="350.97,1078.16 347.18,1077.32 344.75,1076.00 342.31,1074.68 338.53,1073.85"/>
    </edge>
    <edge id=":1017322720_3" function="internal">
        <lane id=":1017322720_3_0" index="0" disallow="tram rail_urban rail rail_electric rail_fast ship container cable_car subway aircraft wheelchair scooter drone" speed="3.65" length="1.44" shape="351.25,1074.97 350.12,1074.07"/>
    </edge>
    <edge id=":1017322720_10" function="internal">
        <lane id=":1017322720_10_0" index="0" disallow="tram rail_urban rail rail_electric rail_fast ship container cable_car subway aircraft wheelchair scooter drone" speed="3.65" length="3.23" shape="350.12,1074.07 349.79,1073.23 350.26,1072.47 351.53,1071.78"/>
    </edge>
    <edge id=":1017322720_4" function="internal">
        <lane id=":1017322720_4_0" index="0" disallow="tram rail_urban rail rail_electric rail_fast ship container cable_car subway aircraft wheelchair scooter drone" speed="6.26" length="9.04" shape="347.50,1059.22 347.34,1061.73 348.05,1063.60 349.63,1064.83 352.09,1065.40"/>
    </edge>
    <edge id=":1017322720_5" function="internal">
        <lane id=":1017322720_5_0" index="0" disallow="tram rail_urban rail rail_electric rail_fast ship container cable_car subway aircraft wheelchair scooter drone" speed="27.78" length="27.64" shape="344.37,1058.56 340.85,1085.97"/>
    </edge>
    <edge id=":1017322720_6" function="internal">
        <lane id=":1017322720_6_0" index="0" disallow="tram rail_urban rail rail_electric rail_fast ship container cable_car subway aircraft wheelchair scooter drone" speed="9.05" length="16.76" shape="344.37,1058.56 342.78,1065.33 341.28,1070.14 339.86,1072.98 338.53,1073.85"/>
    </edge>
    <edge id=":1017322720_7" function="internal">
        <lane id=":1017322720_7_0" index="0" disallow="tram rail_urban rail rail_electric rail_fast ship container cable_car subway aircraft wheelchair scooter drone" speed="11.11" length="12.77" shape="339.09,1067.47 351.81,1068.59"/>
        <lane id=":1017322720_7_1" index="1" disallow="tram rail_urban rail rail_electric rail_fast ship container cable_car subway aircraft wheelchair scooter drone" speed="11.11" length="12.77" shape="338.81,1070.66 351.53,1071.78"/>
    </edge>
    <edge id=":1017322720_9" function="internal">
        <lane id=":1017322720_9_0" index="0" disallow="tram rail_urban rail rail_electric rail_fast ship container cable_car subway aircraft wheelchair scooter drone" speed="3.65" length="1.44" shape="338.81,1070.66 339.93,1071.56"/>
    </edge>
    <edge id=":1017322720_11" function="internal">
        <lane id=":1017322720_11_0" index="0" disallow="tram rail_urban rail rail_electric rail_fast ship container cable_car subway aircraft wheelchair scooter drone" speed="3.65" length="3.23" shape="339.93,1071.56 340.26,1072.39 339.79,1073.16 338.53,1073.85"/>
    </edge>
    <edge id=":1017361500_0" function="internal">
        <lane id=":1017361500_0_0" index="0" disallow="tram rail_urban rail rail_electric rail_fast ship container cable_car subway aircraft wheelchair scooter drone" speed="22.22" length="4.64" shape="72.43,1074.83 71.66,1073.69 71.10,1072.92 70.46,1072.23 69.43,1071.31"/>
    </edge>
    <edge id=":1017361506_0" function="internal">
        <lane id=":1017361506_0_0" index="0" disallow="tram rail_urban rail rail_electric rail_fast ship container cable_car subway aircraft wheelchair scooter drone" speed="22.22" length="4.86" shape="104.17,1073.54 103.66,1074.89 103.32,1075.82 103.04,1076.77 102.68,1078.16"/>
    </edge>
    <edge id=":1017361507_0" function="internal">
        <lane id=":1017361507_0_0" index="0" disallow="tram rail_urban rail rail_electric rail_fast ship container cable_car subway aircraft wheelchair scooter drone" speed="11.11" length="12.39" shape="338.05,1077.02 325.70,1075.93"/>
        <lane id=":1017361507_0_1" index="1" disallow="tram rail_urban rail rail_electric rail_fast ship container cable_car subway aircraft wheelchair scooter drone" speed="11.11" length="12.39" shape="338.33,1073.83 325.99,1072.74"/>
    </edge>
    <edge id=":1017361507_2" function="internal">
        <lane id=":1017361507_2_0" index="0" disallow="tram rail_urban rail rail_electric rail_fast ship container cable_car subway aircraft wheelchair scooter drone" speed="7.55" length="13.77" shape="338.33,1073.83 336.49,1072.90 335.56,1070.53 335.53,1066.71 336.40,1061.44"/>
    </edge>
    <edge id=":1017361507_3" function="internal">
        <lane id=":1017361507_3_0" index="0" disallow="tram rail_urban rail rail_electric rail_fast ship container cable_car subway aircraft wheelchair scooter drone" speed="3.65" length="4.67" shape="338.33,1073.83 337.20,1072.93 336.87,1072.10 337.34,1071.33 338.61,1070.64"/>
    </edge>
    <edge id=":1017361507_4" function="internal">
        <lane id=":1017361507_4_0" index="0" disallow="tram rail_urban rail rail_electric rail_fast ship container cable_car subway aircraft wheelchair scooter drone" speed="7.05" length="9.72" shape="326.55,1066.37 328.99,1066.19 330.92,1065.20 332.35,1063.39 333.27,1060.75"/>
    </edge>
    <edge id=":1017361507_5" function="internal">
        <lane id=":1017361507_5_0" index="0" disallow="tram rail_urban rail rail_electric rail_fast ship container cable_car subway aircraft wheelchair scooter drone" speed="11.11" length="12.39" shape="326.55,1066.37 338.89,1067.46"/>
        <lane id=":1017361507_5_1" index="1" disallow="tram rail_urban rail rail_electric rail_fast ship container cable_car subway aircraft wheelchair scooter drone" speed="11.11" length="12.39" shape="326.27,1069.55 338.61,1070.64"/>
    </edge>
    <edge id=":1017361507_7" function="internal">
        <lane id=":1017361507_7_0" index="0" disallow="tram rail_urban rail rail_electric rail_fast ship container cable_car subway aircraft wheelchair scooter drone" speed="3.65" length="4.67" shape="326.27,1069.55 327.39,1070.46 327.72,1071.29 327.25,1072.05 325.99,1072.74"/>
    </edge>
    <edge id=":1017361507_8" function="internal">
        <lane id=":1017361507_8_0" index="0" disallow="tram rail_urban rail rail_electric rail_fast ship container cable_car subway aircraft wheelchair scooter drone" speed="6.43" length="9.29" shape="330.80,1082.11 330.83,1079.60 329.99,1077.74 328.28,1076.51 325.70,1075.93"/>
    </edge>
    <edge id=":1017361507_9" function="internal">
        <lane id=":1017361507_9_0" index="0" disallow="tram rail_urban rail rail_electric rail_fast ship container cable_car subway aircraft wheelchair scooter drone" speed="27.78" length="21.46" shape="330.80,1082.11 333.27,1060.75"/>
        <lane id=":1017361507_9_1" index="1" disallow="tram rail_urban rail rail_electric rail_fast ship container cable_car subway aircraft wheelchair scooter drone" speed="27.78" length="21.46" shape="330.80,1082.11 331.71,1078.17 333.10,1073.59 334.73,1068.10 336.40,1061.44"/>
    </edge>
    <edge id=":1017361507_11" function="internal">
        <lane id=":1017361507_11_0" index="0" disallow="tram rail_urban rail rail_electric rail_fast ship container cable_car subway aircraft wheelchair scooter drone" speed="8.47" length="15.14" shape="330.80,1082.11 332.02,1076.90 333.73,1073.25 335.93,1071.17 338.61,1070.64"/>
    </edge>
    <edge id=":1017361510_0" function="internal">
        <lane id=":1017361510_0_0" index="0" disallow="tram rail_urban rail rail_electric rail_fast ship container cable_car subway aircraft wheelchair scooter drone" speed="27.78" length="8.21" shape="95.45,1105.00 94.80,1107.34 94.54,1108.98 94.45,1110.66 94.29,1113.09"/>
    </edge>
    <edge id=":1017361510_1" function="internal">
        <lane id=":1017361510_1_0" index="0" disallow="tram rail_urban rail rail_electric rail_fast ship container cable_car subway aircraft wheelchair scooter drone" speed="6.06" length="3.24" shape="95.45,1105.00 94.08,1107.94"/>
    </edge>
    <edge id=":1017361510_2" function="internal">
        <lane id=":1017361510_2_0" index="0" disallow="tram rail_urban rail rail_electric rail_fast ship container cable_car subway aircraft wheelchair scooter drone" speed="5.44" length="3.67" shape="95.45,1105.00 94.14,1108.23 93.99,1108.32"/>
    </edge>
    <edge id=":1017361510_6" function="internal">
        <lane id=":1017361510_6_0" index="0" disallow="tram rail_urban rail rail_electric rail_fast ship container cable_car subway aircraft wheelchair scooter drone" speed="6.06" length="9.51" shape="94.08,1107.94 93.92,1108.28 92.17,1109.11 90.21,1107.47 88.04,1103.37"/>
    </edge>
    <edge id=":1017361510_7" function="internal">
        <lane id=":1017361510_7_0" index="0" disallow="tram rail_urban rail rail_electric rail_fast ship container cable_car subway aircraft wheelchair scooter drone" speed="5.44" length="7.72" shape="93.99,1108.32 93.05,1108.89 92.19,1106.97 91.56,1102.48"/>
    </edge>
    <edge id=":1017361510_3" function="internal">
        <lane id=":1017361510_3_0" index="0" disallow="tram rail_urban rail rail_electric rail_fast ship container cable_car subway aircraft wheelchair scooter drone" speed="15.70" length="10.14" shape="91.10,1112.81 91.08,1109.89 90.46,1107.95 89.40,1106.08 88.04,1103.37"/>
    </edge>
    <edge id=":1017361510_4" function="internal">
        <lane id=":1017361510_4_0" index="0" disallow="tram rail_urban rail rail_electric rail_fast ship container cable_car subway aircraft wheelchair scooter drone" speed="27.78" length="10.36" shape="91.10,1112.81 91.42,1109.80 91.66,1107.65 91.74,1105.50 91.56,1102.48"/>
    </edge>
    <edge id=":1017361510_5" function="internal">
        <lane id=":1017361510_5_0" index="0" disallow="tram rail_urban rail rail_electric rail_fast ship container cable_car subway aircraft wheelchair scooter drone" speed="3.65" length="1.44" shape="91.10,1112.81 92.00,1111.69"/>
    </edge>
    <edge id=":1017361510_8" function="internal">
        <lane id=":1017361510_8_0" index="0" disallow="tram rail_urban rail rail_electric rail_fast ship container cable_car subway aircraft wheelchair scooter drone" speed="3.65" length="3.23" shape="92.00,1111.69 92.83,1111.36 93.60,1111.83 94.29,1113.09"/>
    </edge>
    <edge id=":1017361512_0" function="internal">
        <lane id=":1017361512_0_0" index="0" disallow="tram rail_urban rail rail_electric rail_fast ship container cable_car subway aircraft wheelchair scooter drone" speed="3.65" length="4.67" shape="1.58,1334.16 0.59,1335.21 -0.27,1335.47 -0.99,1334.94 -1.58,1333.62"/>
    </edge>
    <edge id=":1017361549_0" function="internal">
        <lane id=":1017361549_0_0" index="0" disallow="tram rail_urban rail rail_electric rail_fast ship container cable_car subway aircraft wheelchair scooter drone" speed="25.00" length="9.44" shape="100.28,1088.05 97.92,1097.20"/>
    </edge>
    <edge id=":1017361549_1" function="internal">
        <lane id=":1017361549_1_0" index="0" disallow="tram rail_urban rail rail_electric rail_fast ship container cable_car subway aircraft wheelchair scooter drone" speed="12.71" length="9.45" shape="96.41,1088.15 97.39,1090.80 98.17,1092.68 98.45,1094.56 97.92,1097.20"/>
    </edge>
    <edge id=":1017361568_0" function="internal">
        <lane id=":1017361568_0_0" index="0" disallow="tram rail_urban rail rail_electric rail_fast ship container cable_car subway aircraft wheelchair scooter drone" speed="25.00" length="15.99" shape="64.68,1009.55 66.77,1012.83 69.30,1016.04 72.06,1019.06 74.85,1021.81"/>
    </edge>
    <edge id=":1017361568_1" function="internal">
        <lane id=":1017361568_1_0" index="0" disallow="tram rail_urban rail rail_electric rail_fast ship container cable_car subway aircraft wheelchair scooter drone" speed="27.78" length="15.95" shape="64.68,1009.55 71.74,1023.86"/>
    </edge>
    <edge id=":1017361570_0" function="internal">
        <lane id=":1017361570_0_0" index="0" disallow="tram rail_urban rail rail_electric rail_fast ship container cable_car subway aircraft wheelchair scooter drone" speed="5.86" length="9.12" shape="92.39,1053.58 89.75,1053.74 88.11,1054.73 87.49,1056.53 87.88,1059.15"/>
    </edge>
    <edge id=":1017361570_1" function="internal">
        <lane id=":1017361570_1_0" index="0" disallow="tram rail_urban rail rail_electric rail_fast ship container cable_car subway aircraft wheelchair scooter drone" speed="27.78" length="14.80" shape="92.39,1053.58 77.71,1051.78"/>
    </edge>
    <edge id=":1017361570_2" function="internal">
        <lane id=":1017361570_2_0" index="0" disallow="tram rail_urban rail rail_electric rail_fast ship container cable_car subway aircraft wheelchair scooter drone" speed="3.65" length="1.44" shape="92.39,1053.58 91.26,1052.69"/>
    </edge>
    <edge id=":1017361570_9" function="internal">
        <lane id=":1017361570_9_0" index="0" disallow="tram rail_urban rail rail_electric rail_fast ship container cable_car subway aircraft wheelchair scooter drone" speed="3.65" length="3.23" shape="91.26,1052.69 90.92,1051.86 91.38,1051.09 92.64,1050.39"/>
    </edge>
    <edge id=":1017361570_3" function="internal">
        <lane id=":1017361570_3_0" index="0" disallow="tram rail_urban rail rail_electric rail_fast ship container cable_car subway aircraft wheelchair scooter drone" speed="10.26" length="13.65" shape="81.46,1043.63 83.38,1046.36 85.89,1048.39 88.97,1049.73 92.64,1050.39"/>
    </edge>
    <edge id=":1017361570_4" function="internal">
        <lane id=":1017361570_4_0" index="0" disallow="tram rail_urban rail rail_electric rail_fast ship container cable_car subway aircraft wheelchair scooter drone" speed="27.78" length="16.82" shape="81.46,1043.63 83.26,1047.24 85.02,1051.25 86.61,1055.33 87.88,1059.15"/>
    </edge>
    <edge id=":1017361570_5" function="internal">
        <lane id=":1017361570_5_0" index="0" disallow="tram rail_urban rail rail_electric rail_fast ship container cable_car subway aircraft wheelchair scooter drone" speed="6.39" length="12.97" shape="81.46,1043.63 83.14,1047.74 83.07,1050.46 81.26,1051.81 77.71,1051.78"/>
    </edge>
    <edge id=":1017361570_6" function="internal">
        <lane id=":1017361570_6_0" index="0" disallow="tram rail_urban rail rail_electric rail_fast ship container cable_car subway aircraft wheelchair scooter drone" speed="27.78" length="14.52" shape="78.23,1048.62 92.64,1050.39"/>
    </edge>
    <edge id=":1017361570_7" function="internal">
        <lane id=":1017361570_7_0" index="0" disallow="tram rail_urban rail rail_electric rail_fast ship container cable_car subway aircraft wheelchair scooter drone" speed="10.04" length="3.36" shape="78.23,1048.62 81.41,1049.70"/>
    </edge>
    <edge id=":1017361570_8" function="internal">
        <lane id=":1017361570_8_0" index="0" disallow="tram rail_urban rail rail_electric rail_fast ship container cable_car subway aircraft wheelchair scooter drone" speed="3.65" length="1.44" shape="78.23,1048.62 79.28,1049.60"/>
    </edge>
    <edge id=":1017361570_10" function="internal">
        <lane id=":1017361570_10_0" index="0" disallow="tram rail_urban rail rail_electric rail_fast ship container cable_car subway aircraft wheelchair scooter drone" speed="10.04" length="11.72" shape="81.41,1049.70 84.08,1051.82 86.24,1054.97 87.88,1059.15"/>
    </edge>
    <edge id=":1017361570_11" function="internal">
        <lane id=":1017361570_11_0" index="0" disallow="tram rail_urban rail rail_electric rail_fast ship container cable_car subway aircraft wheelchair scooter drone" speed="3.65" length="3.23" shape="79.28,1049.60 79.55,1050.46 79.02,1051.18 77.71,1051.78"/>
    </edge>
    <edge id=":1017361605_0" function="internal">
        <lane id=":1017361605_0_0" index="0" disallow="tram rail_urban rail rail_electric rail_fast ship container cable_car subway aircraft wheelchair scooter drone" speed="25.00" length="7.54" shape="42.15,1048.58 40.30,1047.33 39.03,1046.45 37.70,1045.70 35.64,1044.86"/>
    </edge>
    <edge id=":1017361605_1" function="internal">
        <lane id=":1017361605_1_0" index="0" disallow="tram rail_urban rail rail_electric rail_fast ship container cable_car subway aircraft wheelchair scooter drone" speed="6.71" length="18.25" shape="42.15,1048.58 36.82,1044.69 35.35,1042.29 37.74,1041.36 43.99,1041.92"/>
    </edge>
    <edge id=":1017361605_2" function="internal">
        <lane id=":1017361605_2_0" index="0" disallow="tram rail_urban rail rail_electric rail_fast ship container cable_car subway aircraft wheelchair scooter drone" speed="27.78" length="7.93" shape="43.48,1045.08 41.14,1044.98 39.49,1045.24 37.87,1045.37 35.64,1044.86"/>
    </edge>
    <edge id=":1017361605_3" function="internal">
        <lane id=":1017361605_3_0" index="0" disallow="tram rail_urban rail rail_electric rail_fast ship container cable_car subway aircraft wheelchair scooter drone" speed="3.65" length="1.32" shape="43.48,1045.08 42.51,1044.19"/>
    </edge>
    <edge id=":1017361605_6" function="internal">
        <lane id=":1017361605_6_0" index="0" disallow="tram rail_urban rail rail_electric rail_fast ship container cable_car subway aircraft wheelchair scooter drone" speed="3.65" length="3.35" shape="42.51,1044.19 42.42,1044.11 42.15,1043.25 42.67,1042.53 43.99,1041.92"/>
    </edge>
    <edge id=":1017361605_4" function="internal">
        <lane id=":1017361605_4_0" index="0" disallow="tram rail_urban rail rail_electric rail_fast ship container cable_car subway aircraft wheelchair scooter drone" speed="27.78" length="7.34" shape="36.73,1041.85 38.80,1042.31 40.29,1042.14 41.82,1041.85 43.99,1041.92"/>
    </edge>
    <edge id=":1017361605_5" function="internal">
        <lane id=":1017361605_5_0" index="0" disallow="tram rail_urban rail rail_electric rail_fast ship container cable_car subway aircraft wheelchair scooter drone" speed="3.65" length="1.32" shape="36.73,1041.85 37.51,1042.91"/>
    </edge>
    <edge id=":1017361605_7" function="internal">
        <lane id=":1017361605_7_0" index="0" disallow="tram rail_urban rail rail_electric rail_fast ship container cable_car subway aircraft wheelchair scooter drone" speed="3.65" length="3.35" shape="37.51,1042.91 37.58,1043.01 37.69,1043.90 37.04,1044.52 35.64,1044.86"/>
    </edge>
    <edge id=":1017361613_0" function="internal">
        <lane id=":1017361613_0_0" index="0" disallow="tram rail_urban rail rail_electric rail_fast ship container cable_car subway aircraft wheelchair scooter drone" speed="27.78" length="8.81" shape="122.71,1059.31 120.30,1058.61 118.86,1057.39 117.41,1056.17 115.00,1055.46"/>
    </edge>
    <edge id=":1017361613_1" function="internal">
        <lane id=":1017361613_1_0" index="0" disallow="tram rail_urban rail rail_electric rail_fast ship container cable_car subway aircraft wheelchair scooter drone" speed="27.78" length="8.40" shape="115.27,1052.27 117.76,1051.98 119.38,1051.01 121.01,1050.04 123.50,1049.75"/>
        <lane id=":1017361613_1_1" index="1" disallow="tram rail_urban rail rail_electric rail_fast ship container cable_car subway aircraft wheelchair scooter drone" speed="27.78" length="8.40" shape="115.27,1052.27 123.24,1052.94"/>
    </edge>
    <edge id=":12735512437_0" function="internal">
        <lane id=":12735512437_0_0" index="0" disallow="tram rail_urban rail rail_electric rail_fast ship container cable_car subway aircraft wheelchair scooter drone" speed="27.78" length="7.94" shape="89.66,1065.21 91.90,1072.83"/>
    </edge>
    <edge id=":12735512438_0" function="internal">
        <lane id=":12735512438_0_0" index="0" disallow="tram rail_urban rail rail_electric rail_fast ship container cable_car subway aircraft wheelchair scooter drone" speed="27.78" length="5.96" shape="82.13,1070.90 81.45,1069.26 80.97,1068.15 80.41,1067.07 79.54,1065.54"/>
    </edge>
    <edge id=":12735512441_0" function="internal">
        <lane id=":12735512441_0_0" index="0" disallow="tram rail_urban rail rail_electric rail_fast ship container cable_car subway aircraft wheelchair scooter drone" speed="27.78" length="4.01" shape="66.09,1041.51 64.21,1037.96"/>
    </edge>
    <edge id=":12735512442_0" function="internal">
        <lane id=":12735512442_0_0" index="0" disallow="tram rail_urban rail rail_electric rail_fast ship container cable_car subway aircraft wheelchair scooter drone" speed="27.78" length="5.89" shape="78.73,1038.19 81.37,1043.45"/>
    </edge>
    <edge id=":12735512443_0" function="internal">
        <lane id=":12735512443_0_0" index="0" disallow="tram rail_urban rail rail_electric rail_fast ship container cable_car subway aircraft wheelchair scooter drone" speed="22.22" length="5.10" shape="87.93,1033.97 91.70,1037.40"/>
    </edge>
    <edge id=":12814290332_0" function="internal">
        <lane id=":12814290332_0_0" index="0" disallow="tram rail_urban rail rail_electric rail_fast ship container cable_car subway aircraft wheelchair scooter drone" speed="3.65" length="4.67" shape="554.36,1089.59 555.49,1090.49 555.81,1091.32 555.35,1092.08 554.08,1092.77"/>
    </edge>
    <edge id=":1452023459_0" function="internal">
        <lane id=":1452023459_0_0" index="0" disallow="tram rail_urban rail rail_electric rail_fast ship container cable_car subway aircraft wheelchair scooter drone" speed="27.78" length="0.10" shape="47.45,971.74 47.45,971.74"/>
    </edge>
    <edge id=":2713481037_0" function="internal">
        <lane id=":2713481037_0_0" index="0" disallow="tram rail_urban rail rail_electric rail_fast ship container cable_car subway aircraft wheelchair scooter drone" speed="19.45" length="0.30" shape="132.63,1060.14 132.32,1060.11"/>
        <lane id=":2713481037_0_1" index="1" disallow="tram rail_urban rail rail_electric rail_fast ship container cable_car subway aircraft wheelchair scooter drone" speed="19.45" length="0.30" shape="132.89,1056.95 132.59,1056.92"/>
    </edge>
    <edge id=":2713481037_2" function="internal">
        <lane id=":2713481037_2_0" index="0" disallow="tram rail_urban rail rail_electric rail_fast ship container cable_car subway aircraft wheelchair scooter drone" speed="19.45" length="0.30" shape="133.12,1050.54 133.41,1050.57"/>
        <lane id=":2713481037_2_1" index="1" disallow="tram rail_urban rail rail_electric rail_fast ship container cable_car subway aircraft wheelchair scooter drone" speed="19.45" length="0.30" shape="132.85,1053.73 133.15,1053.76"/>
    </edge>
    <edge id=":2730494622_0" function="internal">
        <lane id=":2730494622_0_0" index="0" disallow="tram rail_urban rail rail_electric rail_fast ship container cable_car subway aircraft wheelchair scooter drone" speed="27.78" length="0.10" shape="60.35,1001.66 60.35,1001.66"/>
    </edge>