<?xml version="1.0" encoding="UTF-8"?>

<!-- generated on 2025-09-19 00:03:48 by Eclipse SUMO netconvert Version 1.24.0
<netconvertConfiguration xmlns:xsi="http://www.w3.org/2001/XMLSchema-instance" xsi:noNamespaceSchemaLocation="http://sumo.dlr.de/xsd/netconvertConfiguration.xsd">

    <input>
        <osm-files value="KCCIntersection.osm"/>
    </input>

    <output>
        <output-file value="KCCIntersection_official.net.xml"/>
    </output>

    <projection>
        <proj.utm value="true"/>
    </projection>

</netconvertConfiguration>
-->

<net version="1.20" junctionCornerDetail="5" limitTurnSpeed="5.50" xmlns:xsi="http://www.w3.org/2001/XMLSchema-instance" xsi:noNamespaceSchemaLocation="http://sumo.dlr.de/xsd/net_file.xsd">

    <location netOffset="-397445.46,-764077.93" convBoundary="0.00,0.00,565.47,2187.54" origBoundary="122.047043,6.911622,122.076824,6.931401" projParameter="+proj=utm +zone=51 +ellps=WGS84 +datum=WGS84 +units=m +no_defs"/>

    <type id="highway.footway" priority="1" numLanes="1" speed="2.78" allow="pedestrian" oneway="1" width="2.00"/>
    <type id="highway.primary" priority="12" numLanes="2" speed="27.78" disallow="tram rail_urban rail rail_electric rail_fast ship container cable_car subway aircraft wheelchair scooter drone" oneway="0"/>
    <type id="highway.primary_link" priority="7" numLanes="1" speed="22.22" disallow="tram rail_urban rail rail_electric rail_fast ship container cable_car subway aircraft wheelchair scooter drone" oneway="0"/>
    <type id="highway.secondary" priority="11" numLanes="1" speed="27.78" disallow="tram rail_urban rail rail_electric rail_fast ship container cable_car subway aircraft wheelchair scooter drone" oneway="0"/>
    <type id="highway.service" priority="1" numLanes="1" speed="5.56" allow="pedestrian delivery bicycle" oneway="0"/>

    <edge id=":1017169865_0" function="internal">
        <lane id=":1017169865_0_0" index="0" disallow="tram rail_urban rail rail_electric rail_fast ship container cable_car subway aircraft wheelchair scooter drone" speed="3.65" length="4.67" shape="22.21,1039.98 21.36,1038.82 21.25,1037.93 21.90,1037.32 23.30,1036.98"/>
    </edge>
    <edge id=":1017322684_0" function="internal">
        <lane id=":1017322684_0_0" index="0" disallow="tram rail_urban rail rail_electric rail_fast ship container cable_car subway aircraft wheelchair scooter drone" speed="12.54" length="16.53" shape="74.79,1056.95 72.60,1054.03 69.60,1051.64 65.79,1049.79 61.17,1048.47"/>
    </edge>
    <edge id=":1017322684_1" function="internal">
        <lane id=":1017322684_1_0" index="0" disallow="tram rail_urban rail rail_electric rail_fast ship container cable_car subway aircraft wheelchair scooter drone" speed="27.78" length="17.53" shape="74.79,1056.95 66.25,1041.64"/>
    </edge>
    <edge id=":1017322684_2" function="internal">
        <lane id=":1017322684_2_0" index="0" disallow="tram rail_urban rail rail_electric rail_fast ship container cable_car subway aircraft wheelchair scooter drone" speed="6.42" length="13.35" shape="74.79,1056.95 72.90,1052.66 72.83,1049.82 74.58,1048.43 78.16,1048.50"/>
    </edge>
    <edge id=":1017322684_3" function="internal">
        <lane id=":1017322684_3_0" index="0" disallow="tram rail_urban rail rail_electric rail_fast ship container cable_car subway aircraft wheelchair scooter drone" speed="27.78" length="16.73" shape="77.60,1051.65 61.17,1048.47"/>
    </edge>
    <edge id=":1017322684_4" function="internal">
        <lane id=":1017322684_4_0" index="0" disallow="tram rail_urban rail rail_electric rail_fast ship container cable_car subway aircraft wheelchair scooter drone" speed="11.90" length="3.87" shape="77.60,1051.65 74.49,1050.60 74.01,1050.27"/>
    </edge>
    <edge id=":1017322684_5" function="internal">
        <lane id=":1017322684_5_0" index="0" disallow="tram rail_urban rail rail_electric rail_fast ship container cable_car subway aircraft wheelchair scooter drone" speed="3.65" length="1.44" shape="77.60,1051.65 76.56,1050.65"/>
    </edge>
    <edge id=":1017322684_9" function="internal">
        <lane id=":1017322684_9_0" index="0" disallow="tram rail_urban rail rail_electric rail_fast ship container cable_car subway aircraft wheelchair scooter drone" speed="11.90" length="11.74" shape="74.01,1050.27 71.56,1048.58 68.81,1045.60 66.25,1041.64"/>
    </edge>
    <edge id=":1017322684_10" function="internal">
        <lane id=":1017322684_10_0" index="0" disallow="tram rail_urban rail rail_electric rail_fast ship container cable_car subway aircraft wheelchair scooter drone" speed="3.65" length="3.23" shape="76.56,1050.65 76.30,1049.80 76.83,1049.08 78.16,1048.50"/>
    </edge>
    <edge id=":1017322684_6" function="internal">
        <lane id=":1017322684_6_0" index="0" disallow="tram rail_urban rail rail_electric rail_fast ship container cable_car subway aircraft wheelchair scooter drone" speed="5.28" length="8.63" shape="61.82,1045.34 64.85,1045.68 66.60,1045.18 67.07,1043.83 66.25,1041.64"/>
    </edge>
    <edge id=":1017322684_7" function="internal">
        <lane id=":1017322684_7_0" index="0" disallow="tram rail_urban rail rail_electric rail_fast ship container cable_car subway aircraft wheelchair scooter drone" speed="27.78" length="16.64" shape="61.82,1045.34 78.16,1048.50"/>
    </edge>
    <edge id=":1017322684_8" function="internal">
        <lane id=":1017322684_8_0" index="0" disallow="tram rail_urban rail rail_electric rail_fast ship container cable_car subway aircraft wheelchair scooter drone" speed="3.65" length="1.44" shape="61.82,1045.34 62.83,1046.37"/>
    </edge>
    <edge id=":1017322684_11" function="internal">
        <lane id=":1017322684_11_0" index="0" disallow="tram rail_urban rail rail_electric rail_fast ship container cable_car subway aircraft wheelchair scooter drone" speed="3.65" length="3.23" shape="62.83,1046.37 63.06,1047.23 62.51,1047.93 61.17,1048.47"/>
    </edge>
    <edge id=":1017322720_0" function="internal">
        <lane id=":1017322720_0_0" index="0" disallow="tram rail_urban rail rail_electric rail_fast ship container cable_car subway aircraft wheelchair scooter drone" speed="7.62" length="12.03" shape="350.69,1081.34 346.72,1081.34 343.75,1082.10 341.80,1083.65 340.85,1085.97"/>
    </edge>
    <edge id=":1017322720_1" function="internal">
        <lane id=":1017322720_1_0" index="0" disallow="tram rail_urban rail rail_electric rail_fast ship container cable_car subway aircraft wheelchair scooter drone" speed="11.11" length="13.29" shape="350.69,1081.34 346.90,1080.51 344.46,1079.19 342.03,1077.87 338.24,1077.03"/>
        <lane id=":1017322720_1_1" index="1" disallow="tram rail_urban rail rail_electric rail_fast ship container cable_car subway aircraft wheelchair scooter drone" speed="11.11" length="13.29" shape="350.97,1078.15 347.18,1077.32 344.75,1076.00 342.31,1074.68 338.52,1073.85"/>
    </edge>
    <edge id=":1017322720_3" function="internal">
        <lane id=":1017322720_3_0" index="0" disallow="tram rail_urban rail rail_electric rail_fast ship container cable_car subway aircraft wheelchair scooter drone" speed="3.65" length="1.44" shape="351.25,1074.97 350.12,1074.06"/>
    </edge>
    <edge id=":1017322720_10" function="internal">
        <lane id=":1017322720_10_0" index="0" disallow="tram rail_urban rail rail_electric rail_fast ship container cable_car subway aircraft wheelchair scooter drone" speed="3.65" length="3.23" shape="350.12,1074.06 349.79,1073.23 350.26,1072.47 351.53,1071.78"/>
    </edge>
    <edge id=":1017322720_4" function="internal">
        <lane id=":1017322720_4_0" index="0" disallow="tram rail_urban rail rail_electric rail_fast ship container cable_car subway aircraft wheelchair scooter drone" speed="6.26" length="9.04" shape="347.50,1059.21 347.34,1061.73 348.05,1063.60 349.63,1064.83 352.09,1065.40"/>
    </edge>
    <edge id=":1017322720_5" function="internal">
        <lane id=":1017322720_5_0" index="0" disallow="tram rail_urban rail rail_electric rail_fast ship container cable_car subway aircraft wheelchair scooter drone" speed="27.78" length="27.64" shape="344.37,1058.56 340.85,1085.97"/>
    </edge>
    <edge id=":1017322720_6" function="internal">
        <lane id=":1017322720_6_0" index="0" disallow="tram rail_urban rail rail_electric rail_fast ship container cable_car subway aircraft wheelchair scooter drone" speed="9.05" length="16.76" shape="344.37,1058.56 342.78,1065.33 341.27,1070.14 339.86,1072.98 338.52,1073.85"/>
    </edge>
    <edge id=":1017322720_7" function="internal">
        <lane id=":1017322720_7_0" index="0" disallow="tram rail_urban rail rail_electric rail_fast ship container cable_car subway aircraft wheelchair scooter drone" speed="11.11" length="12.77" shape="339.09,1067.47 351.81,1068.59"/>
        <lane id=":1017322720_7_1" index="1" disallow="tram rail_urban rail rail_electric rail_fast ship container cable_car subway aircraft wheelchair scooter drone" speed="11.11" length="12.77" shape="338.81,1070.66 351.53,1071.78"/>
    </edge>
    <edge id=":1017322720_9" function="internal">
        <lane id=":1017322720_9_0" index="0" disallow="tram rail_urban rail rail_electric rail_fast ship container cable_car subway aircraft wheelchair scooter drone" speed="3.65" length="1.44" shape="338.81,1070.66 339.93,1071.56"/>
    </edge>
    <edge id=":1017322720_11" function="internal">
        <lane id=":1017322720_11_0" index="0" disallow="tram rail_urban rail rail_electric rail_fast ship container cable_car subway aircraft wheelchair scooter drone" speed="3.65" length="3.23" shape="339.93,1071.56 340.26,1072.39 339.79,1073.15 338.52,1073.85"/>
    </edge>
    <edge id=":1017361500_0" function="internal">
        <lane id=":1017361500_0_0" index="0" disallow="tram rail_urban rail rail_electric rail_fast ship container cable_car subway aircraft wheelchair scooter drone" speed="22.22" length="4.64" shape="72.44,1074.82 71.66,1073.68 71.10,1072.92 70.46,1072.23 69.44,1071.31"/>
    </edge>
    <edge id=":1017361506_0" function="internal">
        <lane id=":1017361506_0_0" index="0" disallow="tram rail_urban rail rail_electric rail_fast ship container cable_car subway aircraft wheelchair scooter drone" speed="22.22" length="4.86" shape="104.18,1073.54 103.66,1074.89 103.32,1075.82 103.04,1076.77 102.69,1078.17"/>
    </edge>
    <edge id=":1017361507_0" function="internal">
        <lane id=":1017361507_0_0" index="0" disallow="tram rail_urban rail rail_electric rail_fast ship container cable_car subway aircraft wheelchair scooter drone" speed="11.11" length="12.39" shape="338.04,1077.02 325.70,1075.93"/>
        <lane id=":1017361507_0_1" index="1" disallow="tram rail_urban rail rail_electric rail_fast ship container cable_car subway aircraft wheelchair scooter drone" speed="11.11" length="12.39" shape="338.33,1073.83 325.98,1072.74"/>
    </edge>
    <edge id=":1017361507_2" function="internal">
        <lane id=":1017361507_2_0" index="0" disallow="tram rail_urban rail rail_electric rail_fast ship container cable_car subway aircraft wheelchair scooter drone" speed="7.55" length="1.86" shape="338.33,1073.83 336.67,1072.99"/>
    </edge>
    <edge id=":1017361507_3" function="internal">
        <lane id=":1017361507_3_0" index="0" disallow="tram rail_urban rail rail_electric rail_fast ship container cable_car subway aircraft wheelchair scooter drone" speed="3.65" length="1.44" shape="338.33,1073.83 337.20,1072.93"/>
    </edge>
    <edge id=":1017361507_12" function="internal">
        <lane id=":1017361507_12_0" index="0" disallow="tram rail_urban rail rail_electric rail_fast ship container cable_car subway aircraft wheelchair scooter drone" speed="7.55" length="11.91" shape="336.67,1072.99 336.49,1072.90 335.56,1070.53 335.53,1066.71 336.40,1061.44"/>
    </edge>
    <edge id=":1017361507_13" function="internal">
        <lane id=":1017361507_13_0" index="0" disallow="tram rail_urban rail rail_electric rail_fast ship container cable_car subway aircraft wheelchair scooter drone" speed="3.65" length="3.23" shape="337.20,1072.93 336.87,1072.09 337.34,1071.33 338.61,1070.64"/>
    </edge>
    <edge id=":1017361507_4" function="internal">
        <lane id=":1017361507_4_0" index="0" disallow="tram rail_urban rail rail_electric rail_fast ship container cable_car subway aircraft wheelchair scooter drone" speed="7.05" length="9.72" shape="326.55,1066.36 328.99,1066.19 330.92,1065.20 332.35,1063.38 333.27,1060.75"/>
    </edge>
    <edge id=":1017361507_5" function="internal">
        <lane id=":1017361507_5_0" index="0" disallow="tram rail_urban rail rail_electric rail_fast ship container cable_car subway aircraft wheelchair scooter drone" speed="11.11" length="12.39" shape="326.55,1066.36 338.89,1067.45"/>
        <lane id=":1017361507_5_1" index="1" disallow="tram rail_urban rail rail_electric rail_fast ship container cable_car subway aircraft wheelchair scooter drone" speed="11.11" length="12.39" shape="326.26,1069.55 338.61,1070.64"/>
    </edge>
    <edge id=":1017361507_7" function="internal">
        <lane id=":1017361507_7_0" index="0" disallow="tram rail_urban rail rail_electric rail_fast ship container cable_car subway aircraft wheelchair scooter drone" speed="3.65" length="1.44" shape="326.26,1069.55 327.39,1070.45"/>
    </edge>
    <edge id=":1017361507_14" function="internal">
        <lane id=":1017361507_14_0" index="0" disallow="tram rail_urban rail rail_electric rail_fast ship container cable_car subway aircraft wheelchair scooter drone" speed="3.65" length="3.23" shape="327.39,1070.45 327.72,1071.29 327.25,1072.05 325.98,1072.74"/>
    </edge>
    <edge id=":1017361507_8" function="internal">
        <lane id=":1017361507_8_0" index="0" disallow="tram rail_urban rail rail_electric rail_fast ship container cable_car subway aircraft wheelchair scooter drone" speed="6.43" length="9.29" shape="330.80,1082.11 330.83,1079.60 329.99,1077.74 328.28,1076.51 325.70,1075.93"/>
    </edge>
    <edge id=":1017361507_9" function="internal">
        <lane id=":1017361507_9_0" index="0" disallow="tram rail_urban rail rail_electric rail_fast ship container cable_car subway aircraft wheelchair scooter drone" speed="27.78" length="21.46" shape="330.80,1082.11 333.27,1060.75"/>
        <lane id=":1017361507_9_1" index="1" disallow="tram rail_urban rail rail_electric rail_fast ship container cable_car subway aircraft wheelchair scooter drone" speed="27.78" length="21.46" shape="330.80,1082.11 331.71,1078.17 333.09,1073.58 334.73,1068.09 336.40,1061.44"/>
    </edge>
    <edge id=":1017361507_11" function="internal">
        <lane id=":1017361507_11_0" index="0" disallow="tram rail_urban rail rail_electric rail_fast ship container cable_car subway aircraft wheelchair scooter drone" speed="8.47" length="15.14" shape="330.80,1082.11 332.02,1076.90 333.73,1073.25 335.92,1071.16 338.61,1070.64"/>
    </edge>
    <edge id=":1017361510_0" function="internal">
        <lane id=":1017361510_0_0" index="0" disallow="tram rail_urban rail rail_electric rail_fast ship container cable_car subway aircraft wheelchair scooter drone" speed="27.78" length="8.22" shape="95.45,1105.00 94.80,1107.33 94.54,1108.98 94.45,1110.66 94.29,1113.09"/>
    </edge>
    <edge id=":1017361510_1" function="internal">
        <lane id=":1017361510_1_0" index="0" disallow="tram rail_urban rail rail_electric rail_fast ship container cable_car subway aircraft wheelchair scooter drone" speed="6.06" length="3.25" shape="95.45,1105.00 94.08,1107.94"/>
    </edge>
    <edge id=":1017361510_2" function="internal">
        <lane id=":1017361510_2_0" index="0" disallow="tram rail_urban rail rail_electric rail_fast ship container cable_car subway aircraft wheelchair scooter drone" speed="5.44" length="3.67" shape="95.45,1105.00 94.14,1108.23 93.99,1108.32"/>
    </edge>
    <edge id=":1017361510_6" function="internal">
        <lane id=":1017361510_6_0" index="0" disallow="tram rail_urban rail rail_electric rail_fast ship container cable_car subway aircraft wheelchair scooter drone" speed="6.06" length="9.50" shape="94.08,1107.94 93.92,1108.28 92.17,1109.11 90.21,1107.48 88.04,1103.38"/>
    </edge>
    <edge id=":1017361510_7" function="internal">
        <lane id=":1017361510_7_0" index="0" disallow="tram rail_urban rail rail_electric rail_fast ship container cable_car subway aircraft wheelchair scooter drone" speed="5.44" length="7.72" shape="93.99,1108.32 93.05,1108.89 92.19,1106.98 91.56,1102.50"/>
    </edge>
    <edge id=":1017361510_3" function="internal">
        <lane id=":1017361510_3_0" index="0" disallow="tram rail_urban rail rail_electric rail_fast ship container cable_car subway aircraft wheelchair scooter drone" speed="15.69" length="10.13" shape="91.10,1112.81 91.08,1109.90 90.46,1107.96 89.40,1106.09 88.04,1103.38"/>
    </edge>
    <edge id=":1017361510_4" function="internal">
        <lane id=":1017361510_4_0" index="0" disallow="tram rail_urban rail rail_electric rail_fast ship container cable_car subway aircraft wheelchair scooter drone" speed="27.78" length="10.36" shape="91.10,1112.81 91.42,1109.80 91.66,1107.66 91.74,1105.51 91.56,1102.50"/>
    </edge>
    <edge id=":1017361510_5" function="internal">
        <lane id=":1017361510_5_0" index="0" disallow="tram rail_urban rail rail_electric rail_fast ship container cable_car subway aircraft wheelchair scooter drone" speed="3.65" length="1.44" shape="91.10,1112.81 92.00,1111.69"/>
    </edge>
    <edge id=":1017361510_8" function="internal">
        <lane id=":1017361510_8_0" index="0" disallow="tram rail_urban rail rail_electric rail_fast ship container cable_car subway aircraft wheelchair scooter drone" speed="3.65" length="3.23" shape="92.00,1111.69 92.83,1111.36 93.59,1111.83 94.29,1113.09"/>
    </edge>
    <edge id=":1017361512_0" function="internal">
        <lane id=":1017361512_0_0" index="0" disallow="tram rail_urban rail rail_electric rail_fast ship container cable_car subway aircraft wheelchair scooter drone" speed="3.65" length="4.67" shape="1.58,1334.16 0.59,1335.20 -0.27,1335.46 -0.99,1334.94 -1.58,1333.62"/>
    </edge>
    <edge id=":1017361549_0" function="internal">
        <lane id=":1017361549_0_0" index="0" disallow="tram rail_urban rail rail_electric rail_fast ship container cable_car subway aircraft wheelchair scooter drone" speed="25.00" length="9.44" shape="100.28,1088.06 97.92,1097.20"/>
    </edge>
    <edge id=":1017361549_1" function="internal">
        <lane id=":1017361549_1_0" index="0" disallow="tram rail_urban rail rail_electric rail_fast ship container cable_car subway aircraft wheelchair scooter drone" speed="12.72" length="9.45" shape="96.41,1088.15 97.39,1090.81 98.17,1092.69 98.45,1094.56 97.92,1097.20"/>
    </edge>
    <edge id=":1017361568_0" function="internal">
        <lane id=":1017361568_0_0" index="0" disallow="tram rail_urban rail rail_electric rail_fast ship container cable_car subway aircraft wheelchair scooter drone" speed="25.00" length="15.99" shape="64.68,1009.55 66.77,1012.83 69.30,1016.04 72.07,1019.07 74.86,1021.81"/>
    </edge>
    <edge id=":1017361568_1" function="internal">
        <lane id=":1017361568_1_0" index="0" disallow="tram rail_urban rail rail_electric rail_fast ship container cable_car subway aircraft wheelchair scooter drone" speed="27.78" length="15.96" shape="64.68,1009.55 71.75,1023.86"/>
    </edge>
    <edge id=":1017361570_0" function="internal">
        <lane id=":1017361570_0_0" index="0" disallow="tram rail_urban rail rail_electric rail_fast ship container cable_car subway aircraft wheelchair scooter drone" speed="5.86" length="9.12" shape="92.40,1053.57 89.75,1053.74 88.12,1054.73 87.49,1056.53 87.88,1059.15"/>
    </edge>
    <edge id=":1017361570_1" function="internal">
        <lane id=":1017361570_1_0" index="0" disallow="tram rail_urban rail rail_electric rail_fast ship container cable_car subway aircraft wheelchair scooter drone" speed="27.78" length="14.73" shape="92.40,1053.57 88.71,1053.24 85.07,1052.81 81.45,1052.30 77.79,1051.69"/>
    </edge>
    <edge id=":1017361570_2" function="internal">
        <lane id=":1017361570_2_0" index="0" disallow="tram rail_urban rail rail_electric rail_fast ship container cable_car subway aircraft wheelchair scooter drone" speed="3.65" length="1.44" shape="92.40,1053.57 91.26,1052.68"/>
    </edge>
    <edge id=":1017361570_9" function="internal">
        <lane id=":1017361570_9_0" index="0" disallow="tram rail_urban rail rail_electric rail_fast ship container cable_car subway aircraft wheelchair scooter drone" speed="3.65" length="3.23" shape="91.26,1052.68 90.93,1051.86 91.39,1051.09 92.64,1050.38"/>
    </edge>
    <edge id=":1017361570_3" function="internal">
        <lane id=":1017361570_3_0" index="0" disallow="tram rail_urban rail rail_electric rail_fast ship container cable_car subway aircraft wheelchair scooter drone" speed="10.27" length="13.69" shape="81.45,1043.59 83.38,1046.33 85.89,1048.38 88.98,1049.73 92.64,1050.38"/>
    </edge>
    <edge id=":1017361570_4" function="internal">
        <lane id=":1017361570_4_0" index="0" disallow="tram rail_urban rail rail_electric rail_fast ship container cable_car subway aircraft wheelchair scooter drone" speed="27.78" length="16.86" shape="81.45,1043.59 83.24,1047.21 85.01,1051.23 86.61,1055.32 87.88,1059.15"/>
    </edge>
    <edge id=":1017361570_5" function="internal">
        <lane id=":1017361570_5_0" index="0" disallow="tram rail_urban rail rail_electric rail_fast ship container cable_car subway aircraft wheelchair scooter drone" speed="6.36" length="12.92" shape="81.45,1043.59 83.14,1047.72 83.09,1050.44 81.31,1051.76 77.79,1051.69"/>
    </edge>
    <edge id=":1017361570_6" function="internal">
        <lane id=":1017361570_6_0" index="0" disallow="tram rail_urban rail rail_electric rail_fast ship container cable_car subway aircraft wheelchair scooter drone" speed="27.78" length="14.42" shape="78.35,1048.54 81.96,1049.14 85.48,1049.64 89.00,1050.06 92.64,1050.38"/>
    </edge>
    <edge id=":1017361570_7" function="internal">
        <lane id=":1017361570_7_0" index="0" disallow="tram rail_urban rail rail_electric rail_fast ship container cable_car subway aircraft wheelchair scooter drone" speed="10.10" length="3.49" shape="78.35,1048.54 81.48,1049.65 81.61,1049.75"/>
    </edge>
    <edge id=":1017361570_8" function="internal">
        <lane id=":1017361570_8_0" index="0" disallow="tram rail_urban rail rail_electric rail_fast ship container cable_car subway aircraft wheelchair scooter drone" speed="3.65" length="1.44" shape="78.35,1048.54 79.39,1049.53"/>
    </edge>
    <edge id=":1017361570_10" function="internal">
        <lane id=":1017361570_10_0" index="0" disallow="tram rail_urban rail rail_electric rail_fast ship container cable_car subway aircraft wheelchair scooter drone" speed="10.10" length="11.55" shape="81.61,1049.75 84.11,1051.79 86.25,1054.96 87.88,1059.15"/>
    </edge>
    <edge id=":1017361570_11" function="internal">
        <lane id=":1017361570_11_0" index="0" disallow="tram rail_urban rail rail_electric rail_fast ship container cable_car subway aircraft wheelchair scooter drone" speed="3.65" length="3.23" shape="79.39,1049.53 79.65,1050.39 79.12,1051.11 77.79,1051.69"/>
    </edge>
    <edge id=":1017361605_0" function="internal">
        <lane id=":1017361605_0_0" index="0" disallow="tram rail_urban rail rail_electric rail_fast ship container cable_car subway aircraft wheelchair scooter drone" speed="25.00" length="7.53" shape="42.16,1048.59 40.30,1047.34 39.04,1046.45 37.71,1045.71 35.65,1044.87"/>
    </edge>
    <edge id=":1017361605_1" function="internal">
        <lane id=":1017361605_1_0" index="0" disallow="tram rail_urban rail rail_electric rail_fast ship container cable_car subway aircraft wheelchair scooter drone" speed="6.71" length="18.26" shape="42.16,1048.59 36.83,1044.70 35.35,1042.29 37.74,1041.37 43.99,1041.93"/>
    </edge>
    <edge id=":1017361605_2" function="internal">
        <lane id=":1017361605_2_0" index="0" disallow="tram rail_urban rail rail_electric rail_fast ship container cable_car subway aircraft wheelchair scooter drone" speed="27.78" length="7.93" shape="43.49,1045.09 41.15,1044.98 39.50,1045.25 37.88,1045.38 35.65,1044.87"/>
    </edge>
    <edge id=":1017361605_3" function="internal">
        <lane id=":1017361605_3_0" index="0" disallow="tram rail_urban rail rail_electric rail_fast ship container cable_car subway aircraft wheelchair scooter drone" speed="3.65" length="1.32" shape="43.49,1045.09 42.52,1044.19"/>
    </edge>
    <edge id=":1017361605_6" function="internal">
        <lane id=":1017361605_6_0" index="0" disallow="tram rail_urban rail rail_electric rail_fast ship container cable_car subway aircraft wheelchair scooter drone" speed="3.65" length="3.35" shape="42.52,1044.19 42.43,1044.11 42.16,1043.26 42.68,1042.53 43.99,1041.93"/>
    </edge>
    <edge id=":1017361605_4" function="internal">
        <lane id=":1017361605_4_0" index="0" disallow="tram rail_urban rail rail_electric rail_fast ship container cable_car subway aircraft wheelchair scooter drone" speed="27.78" length="7.34" shape="36.74,1041.86 38.81,1042.31 40.30,1042.15 41.83,1041.85 43.99,1041.93"/>
    </edge>
    <edge id=":1017361605_5" function="internal">
        <lane id=":1017361605_5_0" index="0" disallow="tram rail_urban rail rail_electric rail_fast ship container cable_car subway aircraft wheelchair scooter drone" speed="3.65" length="1.32" shape="36.74,1041.86 37.52,1042.92"/>
    </edge>
    <edge id=":1017361605_7" function="internal">
        <lane id=":1017361605_7_0" index="0" disallow="tram rail_urban rail rail_electric rail_fast ship container cable_car subway aircraft wheelchair scooter drone" speed="3.65" length="3.35" shape="37.52,1042.92 37.60,1043.02 37.70,1043.91 37.05,1044.53 35.65,1044.87"/>
    </edge>
    <edge id=":1017361613_0" function="internal">
        <lane id=":1017361613_0_0" index="0" disallow="tram rail_urban rail rail_electric rail_fast ship container cable_car subway aircraft wheelchair scooter drone" speed="27.78" length="6.82" shape="122.71,1059.31 120.94,1058.67 119.98,1057.48 119.02,1056.30 117.25,1055.65"/>
    </edge>
    <edge id=":1017361613_1" function="internal">
        <lane id=":1017361613_1_0" index="0" disallow="tram rail_urban rail rail_electric rail_fast ship container cable_car subway aircraft wheelchair scooter drone" speed="27.78" length="6.28" shape="117.51,1052.46 119.37,1052.11 120.51,1051.11 121.64,1050.10 123.50,1049.75"/>
        <lane id=":1017361613_1_1" index="1" disallow="tram rail_urban rail rail_electric rail_fast ship container cable_car subway aircraft wheelchair scooter drone" speed="27.78" length="6.28" shape="117.51,1052.46 123.24,1052.94"/>
    </edge>
    <edge id=":12735512437_0" function="internal">
        <lane id=":12735512437_0_0" index="0" disallow="tram rail_urban rail rail_electric rail_fast ship container cable_car subway aircraft wheelchair scooter drone" speed="27.78" length="7.94" shape="89.66,1065.20 91.90,1072.82"/>
    </edge>
    <edge id=":12735512438_0" function="internal">
        <lane id=":12735512438_0_0" index="0" disallow="tram rail_urban rail rail_electric rail_fast ship container cable_car subway aircraft wheelchair scooter drone" speed="27.78" length="5.93" shape="82.13,1070.89 81.46,1069.27 80.98,1068.16 80.44,1067.08 79.59,1065.54"/>
    </edge>
    <edge id=":12735512441_0" function="internal">
        <lane id=":12735512441_0_0" index="0" disallow="tram rail_urban rail rail_electric rail_fast ship container cable_car subway aircraft wheelchair scooter drone" speed="27.78" length="6.45" shape="66.16,1041.47 63.02,1035.83"/>
    </edge>
    <edge id=":12735512442_0" function="internal">
        <lane id=":12735512442_0_0" index="0" disallow="tram rail_urban rail rail_electric rail_fast ship container cable_car subway aircraft wheelchair scooter drone" speed="27.78" length="5.85" shape="78.73,1038.19 81.36,1043.42"/>
    </edge>
    <edge id=":12735512443_0" function="internal">
        <lane id=":12735512443_0_0" index="0" disallow="tram rail_urban rail rail_electric rail_fast ship container cable_car subway aircraft wheelchair scooter drone" speed="22.22" length="5.10" shape="87.93,1033.97 91.71,1037.40"/>
    </edge>
    <edge id=":12814290332_0" function="internal">
        <lane id=":12814290332_0_0" index="0" disallow="tram rail_urban rail rail_electric rail_fast ship container cable_car subway aircraft wheelchair scooter drone" speed="3.65" length="4.67" shape="554.36,1089.58 555.49,1090.49 555.82,1091.32 555.35,1092.08 554.08,1092.77"/>
    </edge>
    <edge id=":1452023459_0" function="internal">
        <lane id=":1452023459_0_0" index="0" allow="pedestrian delivery bicycle" speed="4.74" length="5.54" shape="52.00,973.22 50.40,973.49 49.48,974.18 49.24,975.31 49.66,976.87"/>
    </edge>
    <edge id=":1452023459_1" function="internal">
        <lane id=":1452023459_1_0" index="0" allow="pedestrian delivery bicycle" speed="3.65" length="4.67" shape="52.00,973.22 50.77,972.45 50.35,971.66 50.73,970.85 51.91,970.02"/>
    </edge>
    <edge id=":1452023459_2" function="internal">
        <lane id=":1452023459_2_0" index="0" allow="pedestrian delivery bicycle" speed="6.54" length="6.81" shape="45.93,967.68 46.65,968.76 47.89,969.50 49.64,969.93 51.91,970.02"/>
    </edge>
    <edge id=":1452023459_3" function="internal">
        <lane id=":1452023459_3_0" index="0" disallow="tram rail_urban rail rail_electric rail_fast ship container cable_car subway aircraft wheelchair scooter drone" speed="27.78" length="9.92" shape="45.93,967.68 49.66,976.87"/>
    </edge>
    <edge id=":1452023465_0" function="internal">
        <lane id=":1452023465_0_0" index="0" allow="pedestrian delivery bicycle" speed="3.65" length="4.67" shape="110.49,974.16 111.62,975.05 111.95,975.88 111.49,976.65 110.23,977.35"/>
    </edge>