<?xml version="1.0" encoding="UTF-8"?>
<routes xmlns:xsi="http://www.w3.org/2001/XMLSchema-instance" xsi:noNamespaceSchemaLocation="http://sumo.dlr.de/xsd/routes_file.xsd">
    
    <!-- OPTIMIZED FILIPINO VEHICLE TYPES - REDUCED EMERGENCY BRAKING -->
    
    <!-- Jeepney - Smooth operation -->
    <vType id="jeepney" accel="1.2" decel="2.5" sigma="0.6" length="7.0" width="2.2" 
           minGap="3.0" maxSpeed="22.0" speedFactor="0.85" color="1,1,0" 
           vClass="passenger" carFollowModel="Krauss" 
           emergencyDecel="4.0" apparentDecel="3.0" speedDev="0.1"/>
    
    <!-- Tricycle - Cautious operation -->
    <vType id="tricycle" accel="1.5" decel="3.0" sigma="0.7" length="3.5" width="1.8" 
           minGap="2.5" maxSpeed="18.0" speedFactor="0.75" color="1,0,1" 
           vClass="motorcycle" carFollowModel="Krauss"
           emergencyDecel="5.0" apparentDecel="4.0" speedDev="0.15"/>
    
    <!-- Private Car - Smooth operation -->
    <vType id="private_car" accel="2.0" decel="3.5" sigma="0.4" length="4.8" width="1.8" 
           minGap="2.5" maxSpeed="25.0" speedFactor="0.9" color="0,0,1" 
           vClass="passenger" carFollowModel="Krauss"
           emergencyDecel="6.0" apparentDecel="4.5" speedDev="0.1"/>
    
    <!-- Multicab - Stable operation -->
    <vType id="multicab" accel="1.4" decel="2.8" sigma="0.6" length="4.5" width="1.9" 
           minGap="2.8" maxSpeed="20.0" speedFactor="0.8" color="0,1,1" 
           vClass="passenger" carFollowModel="Krauss"
           emergencyDecel="4.5" apparentDecel="3.5" speedDev="0.12"/>
    
    <!-- Delivery Truck - Conservative operation -->
    <vType id="delivery_truck" accel="1.0" decel="2.2" sigma="0.5" length="6.5" width="2.3" 
           minGap="3.5" maxSpeed="16.0" speedFactor="0.7" color="0.5,0.5,0.5" 
           vClass="delivery" carFollowModel="Krauss"
           emergencyDecel="3.5" apparentDecel="2.8" speedDev="0.08"/>
    
    <!-- Habal-habal - Agile but safe -->
    <vType id="habal_habal" accel="2.5" decel="4.0" sigma="0.8" length="2.2" width="0.8" 
           minGap="2.0" maxSpeed="22.0" speedFactor="0.95" color="1,0.5,0" 
           vClass="motorcycle" carFollowModel="Krauss"
           emergencyDecel="6.0" apparentDecel="5.0" speedDev="0.2"/>
    
    <!-- Bus - Large vehicle conservative -->
    <vType id="bus" accel="0.8" decel="2.0" sigma="0.3" length="12.0" width="2.5" 
           minGap="4.0" maxSpeed="18.0" speedFactor="0.75" color="0,1,0" 
           vClass="bus" carFollowModel="Krauss"
           emergencyDecel="3.0" apparentDecel="2.5" speedDev="0.05"/>
    
</routes>